2
V85131 1 0 SIN 0 12 60 0.0 0 0 6
D1202 1 2
R1002 2 0 1000.0
C2002 2 0 4.9999999999999996e-05
.TRAN 0.1 1e-05 BE 1 