3
V1 1 0 SIN 0 10 1 90 0 0 0
R1 1 2 1e3
K1 2 0 3 0 100 400 180
R2 3 0 1e3
.TRAN 2 0.5e-4 BE 1e-4