3
V1 1 0 SIN 0 10 1 0.0 0 0 0
D1 1 2 50e-15 22.5e-3
R1 2 0 1e3
V2 0 3 SIN 0 10 1 0.0 0 0 0
D2 3 2 50e-15 22.5e-3
.TRAN 4 0.2e-3 BE 1e-4