2
V5003 1 0 PULSE 0 5 0.002 0.0002 0.0002 0.0005 0.001 10
R1002 1 2 1000.0
R1003 2 0 1000.0
.TRAN 0.01 1e-05 BE 1 