2
V4000 1 0 SIN 1 5 1000 0.002 80 90 5
R1000 1 2 1000.0
R1001 2 0 1000.0
.TRAN 0.005 1e-05 BE 1 