2 <br/>
V4000 1 0 SIN 1 5 1000 0.002 80 90 5  <br/>
R1000 1 2 1000.0  <br/>
R1001 2 0 1000.0  <br/>
.TRAN 0.005 1e-05 BE 1 <br/>