2
R1004 1 2 1.9
L3000 1 0 1
C2000 2 0 0.31 IC=1
C2001 1 0 1 IC=1
N9900 2 0 -2 1.1 -1 0.7 1 -0.7 2 -1.1
.TRAN 1000 0.1 BE 1 