2
V1 1 0 SIN 0 1 1 0.0 0 0 0
R1 2 0 1e3
R2 2 1 1e3
.TRAN 2 0.2e-3 BE 1e-4