2
V1 1 0 SIN 0 10 1 0.0 0 0 0
D1 1 2 50e-15 22.5e-3
R1 2 0 1e3
C1 2 0 1e-3 0
.TRAN 3 0.2e-3 BE 1e-4