3
V1 1 0 SIN 0 10 1 90 0 0 0
R1 1 2 1e3
R2 2 3 1e3
L1 3 0 100 0
.TRAN 2 0.5e-4 BE 1e-4