7
V2000 1 0 SIN 0 2.5 1000 0.0 0 0 4
R1006 1 2 1000.0
O9901 0 2 3
R1007 2 4 1000.0
D1201 4 3
D1202 3 5
R1008 5 2 1000.0
R1009 4 6 1000.0
O9902 5 6 7
R1010 6 7 1000.0
R1011 7 0 100000.0
C2006 7 0 9.999999999999999e-05
.TRAN 0.004 1e-06 BE 1 