5
R1012 1 2 51000.0
C2007 2 3 1e-09
R1013 3 0 51000.0
C2008 3 0 1e-09
O9903 3 4 1
R1014 4 0 47000.0
R1015 1 4 100000.0
R1016 1 5 1000000.0
D1203 5 4
D1204 4 5
.TRAN 0.05 1e-06 BE 1 